Version 4
SHEET 1 1248 936
WIRE -144 -128 -144 -144
WIRE -144 -32 -144 -48
WIRE -144 -32 -176 -32
WIRE -176 -16 -176 -32
WIRE -144 -16 -144 -32
WIRE 400 -16 368 -16
WIRE 512 -16 464 -16
WIRE -144 80 -144 64
WIRE 368 80 368 -16
WIRE 400 80 368 80
WIRE 512 80 512 -16
WIRE 512 80 480 80
WIRE -400 128 -432 128
WIRE -288 128 -336 128
WIRE 256 160 192 160
WIRE 368 160 368 80
WIRE 368 160 336 160
WIRE 432 176 432 160
WIRE 368 192 368 160
WIRE 400 192 368 192
WIRE 512 208 512 80
WIRE 512 208 464 208
WIRE 544 208 512 208
WIRE 720 208 624 208
WIRE 784 208 720 208
WIRE 880 208 784 208
WIRE 912 208 880 208
WIRE 992 208 976 208
WIRE -432 224 -432 128
WIRE -400 224 -432 224
WIRE -288 224 -288 128
WIRE -288 224 -320 224
WIRE 400 224 368 224
WIRE 784 240 784 208
WIRE 880 240 880 208
WIRE 256 256 224 256
WIRE 368 256 368 224
WIRE 368 256 336 256
WIRE 432 256 432 240
WIRE 368 288 368 256
WIRE -368 320 -368 304
WIRE -640 336 -720 336
WIRE -544 336 -576 336
WIRE -432 336 -432 224
WIRE -432 336 -464 336
WIRE -400 336 -432 336
WIRE 784 336 784 304
WIRE 880 336 880 320
WIRE -288 352 -288 224
WIRE -288 352 -336 352
WIRE -256 352 -288 352
WIRE -224 352 -256 352
WIRE -144 352 -160 352
WIRE -720 368 -720 336
WIRE -400 368 -432 368
WIRE -432 384 -432 368
WIRE -256 384 -256 352
WIRE -368 400 -368 384
WIRE 368 400 368 368
WIRE 656 400 368 400
WIRE 1184 416 1184 384
WIRE 1184 416 1152 416
WIRE 1152 432 1152 416
WIRE 1184 432 1184 416
WIRE 96 448 16 448
WIRE 192 448 192 160
WIRE 192 448 160 448
WIRE 224 448 224 256
WIRE 256 448 224 448
WIRE 880 448 880 416
WIRE 912 448 880 448
WIRE -720 464 -720 448
WIRE 256 464 256 448
WIRE 400 464 368 464
WIRE 512 464 464 464
WIRE 912 464 912 448
WIRE -256 480 -256 448
WIRE 16 480 16 448
WIRE 880 480 880 448
WIRE 368 560 368 464
WIRE 400 560 368 560
WIRE 512 560 512 464
WIRE 512 560 480 560
WIRE 16 576 16 560
WIRE 880 576 880 560
WIRE 224 640 224 448
WIRE 256 640 224 640
WIRE 368 640 368 560
WIRE 368 640 336 640
WIRE 432 656 432 640
WIRE 368 672 368 640
WIRE 400 672 368 672
WIRE 512 688 512 560
WIRE 512 688 464 688
WIRE 544 688 512 688
WIRE 656 688 656 400
WIRE 656 688 624 688
WIRE 784 688 656 688
WIRE 880 688 880 656
WIRE 880 688 784 688
WIRE 912 688 880 688
WIRE 992 688 976 688
WIRE 400 704 368 704
WIRE 784 720 784 688
WIRE 192 736 192 448
WIRE 256 736 192 736
WIRE 368 736 368 704
WIRE 368 736 336 736
WIRE 432 736 432 720
WIRE 368 768 368 736
WIRE 784 816 784 784
WIRE 368 880 368 848
WIRE 720 880 720 208
WIRE 720 880 368 880
FLAG 432 160 Vcc
FLAG -144 -144 Vcc
FLAG -144 80 Vee
FLAG 432 256 Vee
FLAG -176 -16 0
FLAG 432 640 Vcc
FLAG 432 736 Vee
FLAG 912 464 0
FLAG 256 464 0
FLAG 16 576 0
FLAG 992 688 Out+
FLAG 992 208 Out-
FLAG -720 464 0
FLAG -368 304 Vcc
FLAG -368 400 Vee
FLAG -432 384 0
FLAG -256 480 0
FLAG -144 352 OutFlt
FLAG 784 816 0
FLAG 784 336 0
FLAG 1152 432 0
FLAG 1184 304 Out+
FLAG 1184 512 Out-
SYMBOL AutoGenerated/NE5532 432 208 R0
WINDOW 0 27 -44 Bottom 2
WINDOW 3 58 42 Top 2
SYMATTR InstName U1
SYMBOL AutoGenerated/NE5532 -368 352 R0
WINDOW 0 36 -51 Bottom 2
WINDOW 3 1 97 Top 2
SYMATTR InstName U2
SYMBOL Res 352 144 R90
WINDOW 0 5 56 VBottom 2
WINDOW 3 27 56 VTop 2
SYMATTR InstName R1
SYMATTR Value 10k
SYMBOL Res 352 240 R90
WINDOW 0 5 56 VBottom 2
WINDOW 3 27 56 VTop 2
SYMATTR InstName R2
SYMATTR Value 10k
SYMBOL Res 496 64 R90
WINDOW 0 5 56 VBottom 2
WINDOW 3 27 56 VTop 2
SYMATTR InstName R3
SYMATTR Value 20k
SYMBOL Res 384 384 R180
WINDOW 0 31 76 Left 2
WINDOW 3 31 40 Left 2
SYMATTR InstName R4
SYMATTR Value 20k
SYMBOL Res 528 224 R270
WINDOW 0 27 56 VTop 2
WINDOW 3 5 56 VBottom 2
SYMATTR InstName R5
SYMATTR Value 47R
SYMBOL Res 864 224 R0
SYMATTR InstName R6
SYMATTR Value 1k
SYMBOL Res 864 320 R0
SYMATTR InstName R7
SYMATTR Value {(1-BAL)*1k}
SYMBOL Cap 976 192 R90
WINDOW 0 0 32 VBottom 2
WINDOW 3 32 32 VTop 2
SYMATTR InstName C1
SYMATTR Value 22µ
SYMBOL Cap 464 -32 R90
WINDOW 0 0 32 VBottom 2
WINDOW 3 32 32 VTop 2
SYMATTR InstName C2
SYMATTR Value 47p
SYMBOL Voltage -144 -144 R0
SYMATTR InstName V1
SYMATTR Value 5
SYMBOL Voltage -144 -32 R0
SYMATTR InstName V2
SYMATTR Value 5
SYMBOL AutoGenerated/NE5532 432 688 R0
WINDOW 0 27 -44 Bottom 2
WINDOW 3 58 42 Top 2
SYMATTR InstName U3
SYMBOL Res 352 624 R90
WINDOW 0 5 56 VBottom 2
WINDOW 3 27 56 VTop 2
SYMATTR InstName R8
SYMATTR Value 10k
SYMBOL Res 352 720 R90
WINDOW 0 5 56 VBottom 2
WINDOW 3 27 56 VTop 2
SYMATTR InstName R9
SYMATTR Value 10k
SYMBOL Res 496 544 R90
WINDOW 0 5 56 VBottom 2
WINDOW 3 27 56 VTop 2
SYMATTR InstName R10
SYMATTR Value 20k
SYMBOL Res 384 864 R180
WINDOW 0 31 76 Left 2
WINDOW 3 31 40 Left 2
SYMATTR InstName R11
SYMATTR Value 20k
SYMBOL Res 528 704 R270
WINDOW 0 27 56 VTop 2
WINDOW 3 5 56 VBottom 2
SYMATTR InstName R12
SYMATTR Value 47R
SYMBOL Res 864 464 R0
SYMATTR InstName R13
SYMATTR Value {BAL*1k}
SYMBOL Res 864 560 R0
SYMATTR InstName R14
SYMATTR Value 1k
SYMBOL Cap 976 672 R90
WINDOW 0 0 32 VBottom 2
WINDOW 3 32 32 VTop 2
SYMATTR InstName C3
SYMATTR Value 22µ
SYMBOL Cap 464 448 R90
WINDOW 0 0 32 VBottom 2
WINDOW 3 32 32 VTop 2
SYMATTR InstName C4
SYMATTR Value 47p
SYMBOL Voltage 16 464 R0
WINDOW 123 24 118 Left 2
SYMATTR InstName V3
SYMATTR Value SINE(0 1 1k)
SYMATTR Value2 AC 1
SYMBOL Cap 160 432 R90
WINDOW 0 0 32 VBottom 2
WINDOW 3 32 32 VTop 2
SYMATTR InstName C5
SYMATTR Value 22µ
SYMBOL Voltage -720 352 R0
WINDOW 123 24 118 Left 2
SYMATTR InstName V4
SYMATTR Value SINE(0 1 1k)
SYMATTR Value2 AC 1
SYMBOL Cap -576 320 R90
WINDOW 0 0 32 VBottom 2
WINDOW 3 32 32 VTop 2
SYMATTR InstName C6
SYMATTR Value 10µ
SYMBOL Res -448 320 R90
WINDOW 0 5 56 VBottom 2
WINDOW 3 27 56 VTop 2
SYMATTR InstName R15
SYMATTR Value 10k
SYMBOL Res -304 208 R90
WINDOW 0 5 56 VBottom 2
WINDOW 3 27 56 VTop 2
SYMATTR InstName R16
SYMATTR Value 20k
SYMBOL Cap -336 112 R90
WINDOW 0 0 32 VBottom 2
WINDOW 3 32 32 VTop 2
SYMATTR InstName C7
SYMATTR Value 330p
SYMBOL Cap -272 384 R0
SYMATTR InstName C8
SYMATTR Value 33n
SYMBOL Cap -160 336 R90
WINDOW 0 0 32 VBottom 2
WINDOW 3 32 32 VTop 2
SYMATTR InstName C9
SYMATTR Value 10µ
SYMBOL Cap 768 720 R0
SYMATTR InstName C10
SYMATTR Value 10n
SYMBOL Cap 768 240 R0
SYMATTR InstName C11
SYMATTR Value 10n
SYMBOL Res 1168 288 R0
SYMATTR InstName R17
SYMATTR Value 10k
SYMBOL Res 1168 416 R0
SYMATTR InstName R18
SYMATTR Value 10k
TEXT -88 208 Left 2 !.param BAL 0.46
TEXT -88 248 Left 2 !.ac dec 1k 10 20k
